Version 4.1
SHEET 1 888 680
WIRE 608 -64 608 -112
WIRE 608 -64 528 -64
WIRE 672 -64 608 -64
WIRE 816 -64 672 -64
WIRE 528 -48 528 -64
WIRE 816 0 816 -64
WIRE 528 48 528 32
WIRE 560 48 528 48
WIRE 672 48 672 16
WIRE 672 48 640 48
WIRE 752 48 672 48
WIRE 528 112 528 48
WIRE -80 144 -160 144
WIRE 112 160 -16 160
WIRE 176 160 112 160
WIRE 256 160 240 160
WIRE 368 160 336 160
WIRE 448 160 368 160
WIRE 464 160 448 160
WIRE -576 176 -576 112
WIRE -576 176 -672 176
WIRE -384 176 -576 176
WIRE -112 176 -304 176
WIRE -80 176 -112 176
WIRE -304 208 -304 176
WIRE -224 208 -304 208
WIRE 368 208 368 160
WIRE 448 208 448 160
WIRE -304 224 -304 208
WIRE -224 224 -224 208
WIRE 112 240 112 160
WIRE 192 320 192 304
WIRE 240 320 192 320
WIRE 368 320 368 288
WIRE 368 320 304 320
WIRE 816 320 816 96
WIRE 816 320 368 320
WIRE -304 336 -304 304
WIRE -224 336 -224 288
WIRE -224 336 -304 336
WIRE -112 336 -112 176
WIRE -304 352 -304 336
WIRE 448 384 448 272
WIRE 528 384 528 208
WIRE 528 384 448 384
WIRE 528 400 528 384
WIRE 192 416 192 400
FLAG -48 48 0
FLAG -48 192 0
FLAG 528 400 0
FLAG -160 64 0
FLAG -576 48 0
FLAG -576 256 0
FLAG -672 176 V_in
FLAG -112 336 V_v+
FLAG 112 240 v_comp
FLAG 192 304 v_gate
FLAG 608 -192 0
FLAG -304 352 0
FLAG 192 416 0
SYMBOL OpAmps\\opamp2 -48 96 R0
SYMATTR InstName U1
SYMATTR Value tlv3501
SYMBOL voltage -48 144 R180
WINDOW 0 -50 125 Left 2
WINDOW 3 -317 148 Left 2
WINDOW 123 0 0 Left 0
WINDOW 39 0 0 Left 0
SYMATTR InstName V1
SYMATTR Value PWL(0 5 5m 5 5.001m 0 7m 0)
SYMBOL voltage -160 160 R180
WINDOW 0 -19 57 Left 2
WINDOW 123 0 0 Left 0
WINDOW 39 0 0 Left 0
SYMATTR InstName V2
SYMATTR Value 2.5
SYMBOL npn 464 112 R0
SYMATTR InstName Q1
SYMBOL pnp 752 96 M180
SYMATTR InstName Q2
SYMBOL res 656 32 R90
WINDOW 0 0 56 VBottom 2
WINDOW 3 32 56 VTop 2
SYMATTR InstName R4
SYMATTR Value 4.7k
SYMBOL res 352 144 R90
WINDOW 0 0 56 VBottom 2
WINDOW 3 32 56 VTop 2
SYMATTR InstName R5
SYMATTR Value 4.7k
SYMBOL diode 176 176 R270
WINDOW 0 32 32 VTop 2
WINDOW 3 0 32 VBottom 2
SYMATTR InstName D1
SYMBOL res 352 192 R0
SYMATTR InstName R6
SYMATTR Value 4.7k
SYMBOL diode 304 304 R90
WINDOW 0 0 32 VBottom 2
WINDOW 3 32 32 VTop 2
SYMATTR InstName D2
SYMBOL res 656 -80 R0
SYMATTR InstName R7
SYMATTR Value 10k
SYMBOL diode -592 48 R0
SYMATTR InstName D3
SYMATTR Value SMAJ5_0A
SYMBOL voltage -576 160 R0
WINDOW 3 -451 230 Left 2
WINDOW 123 0 0 Left 0
WINDOW 39 -446 203 Left 2
SYMATTR InstName V3
SYMATTR Value PWL(0 5 1m 5 1.0001m 15 1.0002m 5 3m 5 3.005m 6.5 7m 6.5)
SYMATTR SpiceLine Rser=0.5
SYMBOL voltage 608 -96 R180
WINDOW 0 24 96 Left 2
WINDOW 3 24 16 Left 2
WINDOW 123 0 0 Left 0
WINDOW 39 0 0 Left 0
SYMATTR InstName V4
SYMATTR Value 22V
SYMBOL res -288 160 R90
WINDOW 0 0 56 VBottom 2
WINDOW 3 32 56 VTop 2
SYMATTR InstName R1
SYMATTR Value 12K
SYMBOL res -320 208 R0
SYMATTR InstName R2
SYMATTR Value 10K
SYMBOL cap -240 224 R0
SYMATTR InstName C1
SYMATTR Value 1n
SYMBOL cap 432 208 R0
SYMATTR InstName C2
SYMATTR Value 10n
SYMBOL res 176 304 R0
SYMATTR InstName R3
SYMATTR Value 100k
SYMBOL res 512 -64 R0
SYMATTR InstName R8
SYMATTR Value 10k
TEXT -968 -16 Left 2 !.model SMAJ5_0A D(Is=1n Rs=0.064 Bv=6.4 Ibv=10m Cjo=2000p)
TEXT -1016 424 Left 2 !.tran 0 7m 0 startup
TEXT -224 552 Left 2 !.include tlv3501.lib
