Version 4.1
SHEET 1 2732 1988
WIRE -720 -560 -768 -560
WIRE -608 -560 -656 -560
WIRE -528 -448 -688 -448
WIRE -688 -432 -688 -448
WIRE -880 -416 -928 -416
WIRE -768 -416 -768 -560
WIRE -768 -416 -800 -416
WIRE -720 -416 -768 -416
WIRE -608 -400 -608 -560
WIRE -608 -400 -656 -400
WIRE -416 -400 -608 -400
WIRE -352 -400 -416 -400
WIRE -720 -384 -784 -384
WIRE -784 -336 -784 -384
WIRE 1104 -96 880 -96
WIRE -560 -64 -560 -80
WIRE -560 -64 -656 -64
WIRE -928 -48 -928 -416
WIRE -928 -48 -1008 -48
WIRE -720 -48 -928 -48
WIRE 1088 -48 1072 -48
WIRE 1232 -48 1168 -48
WIRE 1296 -48 1232 -48
WIRE 1360 -48 1296 -48
WIRE 1504 -48 1440 -48
WIRE 1600 -48 1504 -48
WIRE 1680 -48 1600 -48
WIRE 1760 -48 1760 -80
WIRE 1760 -48 1680 -48
WIRE 1920 -48 1760 -48
WIRE -624 -32 -656 -32
WIRE 1920 16 1920 -48
WIRE 1232 32 1232 -48
WIRE 1296 32 1296 -48
WIRE 1504 32 1504 -48
WIRE 1600 32 1600 -48
WIRE 1680 32 1680 -48
WIRE 1072 48 1072 -48
WIRE 1440 48 1344 48
WIRE -928 112 -928 -48
WIRE -832 112 -928 112
WIRE -624 112 -624 -32
WIRE -624 112 -752 112
WIRE -544 112 -624 112
WIRE -416 112 -416 -400
WIRE -416 112 -464 112
WIRE -48 112 -48 32
WIRE -48 112 -416 112
WIRE -16 112 -48 112
WIRE 1760 112 1760 -48
WIRE 2032 112 1968 112
WIRE 1296 160 1296 112
WIRE 1312 160 1296 160
WIRE 1296 176 1296 160
WIRE 160 192 160 160
WIRE 880 192 880 -96
WIRE 880 192 864 192
WIRE -16 208 -16 112
WIRE 128 208 -16 208
WIRE 336 224 192 224
WIRE 128 240 -16 240
WIRE -496 272 -576 272
WIRE -352 272 -432 272
WIRE 1072 320 1072 128
WIRE 1232 320 1232 96
WIRE 1232 320 1072 320
WIRE 1296 320 1296 256
WIRE 1296 320 1232 320
WIRE 1504 320 1504 96
WIRE 1504 320 1296 320
WIRE 1552 320 1504 320
WIRE 1600 320 1600 96
WIRE 1600 320 1552 320
WIRE 1680 320 1680 96
WIRE 1680 320 1600 320
WIRE 1760 320 1760 192
WIRE 1760 320 1680 320
WIRE 1920 320 1920 176
WIRE 1920 320 1760 320
WIRE -576 352 -576 272
WIRE -496 352 -576 352
WIRE -352 352 -352 272
WIRE -352 352 -432 352
WIRE 1552 352 1552 320
WIRE 880 384 880 192
WIRE 976 384 880 384
WIRE 1440 384 1440 48
WIRE 1440 384 1040 384
WIRE -1008 416 -1008 384
WIRE -1008 416 -1088 416
WIRE -928 416 -1008 416
WIRE -1088 448 -1088 416
WIRE -576 448 -576 352
WIRE -576 448 -656 448
WIRE -560 448 -576 448
WIRE -448 448 -480 448
WIRE -352 448 -352 352
WIRE -352 448 -384 448
WIRE -272 448 -352 448
WIRE -32 448 -272 448
WIRE -16 448 -16 240
WIRE -16 448 -32 448
WIRE -928 496 -928 416
WIRE -32 496 -32 448
WIRE -1088 528 -1088 512
WIRE -1088 640 -1088 608
WIRE -1008 640 -1088 640
WIRE -928 640 -928 576
WIRE -928 640 -1008 640
WIRE -656 640 -656 448
WIRE -656 640 -928 640
WIRE -496 640 -656 640
WIRE -272 656 -272 448
WIRE -272 656 -432 656
WIRE -160 656 -272 656
WIRE -496 672 -560 672
WIRE -1008 688 -1008 640
WIRE 736 880 656 880
WIRE 592 896 560 896
WIRE 736 912 736 880
WIRE 832 912 736 912
WIRE 1008 912 896 912
WIRE -704 928 -784 928
WIRE -560 928 -560 672
WIRE -560 928 -640 928
WIRE 832 928 768 928
WIRE -784 976 -784 928
WIRE -720 976 -784 976
WIRE -560 976 -560 928
WIRE -560 976 -640 976
WIRE -384 976 -560 976
WIRE -672 1056 -784 1056
WIRE -560 1056 -560 1040
WIRE -560 1056 -672 1056
WIRE 112 1056 -48 1056
WIRE -560 1072 -560 1056
WIRE -512 1072 -560 1072
WIRE -384 1072 -432 1072
WIRE 464 1072 176 1072
WIRE 656 1072 624 1072
WIRE -672 1088 -672 1056
WIRE 112 1088 80 1088
WIRE 80 1104 80 1088
WIRE 80 1104 -64 1104
WIRE 464 1120 432 1120
WIRE 768 1120 768 928
WIRE 768 1120 640 1120
WIRE 656 1280 656 1072
WIRE 656 1376 656 1344
WIRE 656 1488 656 1456
WIRE 656 1488 592 1488
WIRE 752 1488 656 1488
WIRE 480 1504 480 1440
WIRE 480 1504 416 1504
WIRE -336 1520 -336 1056
WIRE 352 1520 -336 1520
WIRE 592 1536 592 1488
WIRE 592 1536 416 1536
WIRE 656 1568 656 1552
WIRE 704 1568 656 1568
WIRE 752 1568 704 1568
WIRE 704 1616 704 1568
WIRE -960 1680 -1008 1680
WIRE -864 1680 -896 1680
WIRE -1008 1792 -1008 1680
WIRE -1008 1792 -1088 1792
WIRE -976 1792 -1008 1792
WIRE -864 1792 -864 1680
WIRE -864 1792 -896 1792
WIRE -704 1792 -864 1792
WIRE -864 1856 -864 1792
WIRE -864 1968 -864 1920
FLAG 1552 352 0
FLAG -1008 768 0
FLAG -464 544 0
FLAG -464 688 0
FLAG -160 656 comp_out
FLAG 1760 -80 Vout
FLAG 160 256 0
FLAG -32 496 comp_out
FLAG 160 80 0
FLAG 1152 -96 0
FLAG -688 -160 0
FLAG -528 -528 0
FLAG -688 -16 0
FLAG -560 -160 0
FLAG -784 -256 0
FLAG -352 -400 V_trig
FLAG -1008 -48 V_comp
FLAG -688 -368 0
FLAG -48 32 V_trig
FLAG -1008 384 Vout
FLAG -672 1088 0
FLAG 1344 96 0
FLAG 976 400 0
FLAG -864 1968 0
FLAG -704 1792 AND_IN
FLAG 1312 160 V_sense
FLAG -48 1056 V_sense
FLAG 336 224 Master_PWM
FLAG 560 896 Master_PWM
FLAG 432 1120 Master_PWM
FLAG 1008 912 PWM_signal
FLAG 864 192 PWM_signal
FLAG 144 960 0
FLAG 144 1104 0
FLAG -144 1104 0
FLAG 544 1024 0
FLAG 544 1168 0
FLAG 464 1168 0
FLAG 848 960 0
FLAG 1968 160 0
FLAG 2032 192 0
FLAG 704 1616 0
FLAG 384 1408 0
FLAG 384 1552 0
FLAG 480 1360 0
FLAG 592 928 0
SYMBOL cap 1488 32 R0
WINDOW 3 42 24 VRight 2
SYMATTR Value 27.77µ
SYMATTR InstName C1
SYMATTR SpiceLine V=25 Rser=2.94m Lser=0.6n
SYMBOL ind 1344 -32 R270
WINDOW 0 32 56 VTop 2
WINDOW 3 5 56 VBottom 2
SYMATTR InstName L1
SYMATTR Value 5.6µ
SYMATTR SpiceLine Rser=1m
SYMBOL voltage -784 960 R0
WINDOW 123 0 0 Left 0
WINDOW 39 0 0 Left 0
WINDOW 3 -20 57 Left 2
SYMATTR Value 2.5
SYMATTR InstName V1
SYMBOL res -944 480 R0
SYMATTR InstName Rf1
SYMATTR Value 10k
SYMBOL res -1104 512 R0
SYMATTR InstName Rf2
SYMATTR Value 321R
SYMBOL cap -1104 448 R0
SYMATTR InstName Cf1
SYMATTR Value 1.54n
SYMBOL res -464 432 R90
WINDOW 0 0 56 VBottom 2
WINDOW 3 32 56 VTop 2
SYMATTR InstName Rc1
SYMATTR Value 19.3k
SYMBOL cap -432 336 R90
WINDOW 0 0 32 VBottom 2
WINDOW 3 32 32 VTop 2
SYMATTR InstName Cc1
SYMATTR Value 36.6p
SYMBOL res -1024 672 R0
SYMATTR InstName Rf3
SYMATTR Value 10k
SYMBOL voltage -464 640 R180
WINDOW 0 24 96 Left 2
WINDOW 3 -7 57 Left 2
WINDOW 123 0 0 Left 0
WINDOW 39 0 0 Left 0
SYMATTR InstName V2
SYMATTR Value 5
SYMBOL cap -384 432 R90
WINDOW 0 0 32 VBottom 2
WINDOW 3 32 32 VTop 2
SYMATTR InstName Cc2
SYMATTR Value 1.66n
SYMBOL cap 1584 32 R0
WINDOW 3 43 26 VRight 2
SYMATTR Value 27.77µ
SYMATTR InstName C2
SYMATTR SpiceLine V=25 Rser=2.94m Lser=0.6n
SYMBOL cap 1664 32 R0
WINDOW 3 43 24 VRight 2
SYMATTR Value 27.77µ
SYMATTR InstName C3
SYMATTR SpiceLine V=25 Rser=2.94m Lser=0.6n
SYMBOL OpAmps\\opamp2 160 160 R0
SYMATTR InstName U1
SYMATTR Value tlv3501
SYMBOL voltage 160 176 R180
WINDOW 0 24 96 Left 2
WINDOW 3 24 16 Left 2
WINDOW 123 0 0 Left 0
WINDOW 39 0 0 Left 0
SYMATTR InstName V3
SYMATTR Value 5
SYMBOL sw 1184 -48 R90
WINDOW 3 -19 97 Left 2
SYMATTR Value MYSW
SYMATTR InstName S1
SYMBOL voltage 1072 32 R0
WINDOW 123 0 0 Left 0
WINDOW 39 0 0 Left 0
SYMATTR InstName V4
SYMATTR Value 22
SYMBOL voltage -688 -64 M180
WINDOW 0 24 96 Left 2
WINDOW 3 -2 56 Left 2
WINDOW 123 0 0 Left 0
WINDOW 39 0 0 Left 0
SYMATTR InstName V5
SYMATTR Value 5
SYMBOL voltage -528 -432 R180
WINDOW 0 -38 14 Left 2
WINDOW 3 -7 56 Left 2
WINDOW 123 0 0 Left 0
WINDOW 39 0 0 Left 0
SYMATTR InstName V6
SYMATTR Value 5
SYMBOL res -448 96 R90
WINDOW 0 0 56 VBottom 2
WINDOW 3 32 56 VTop 2
SYMATTR InstName R1
SYMATTR Value 8k
SYMBOL res -736 96 R90
WINDOW 0 0 56 VBottom 2
WINDOW 3 32 56 VTop 2
SYMATTR InstName R2
SYMATTR Value 10k
SYMBOL res -784 -432 R90
WINDOW 0 0 56 VBottom 2
WINDOW 3 32 56 VTop 2
SYMATTR InstName R3
SYMATTR Value 6.944k
SYMBOL cap -656 -576 R90
WINDOW 0 0 32 VBottom 2
WINDOW 3 32 32 VTop 2
SYMATTR InstName C4
SYMATTR Value 100p
SYMBOL voltage -560 -64 R180
WINDOW 0 -43 -7 VRight 2
WINDOW 3 -21 57 Left 2
WINDOW 123 0 0 Left 0
WINDOW 39 0 0 Left 0
SYMATTR InstName Vref_comp1
SYMATTR Value 2.5
SYMBOL voltage -784 -352 R0
WINDOW 0 -50 22 VRight 2
WINDOW 3 -19 58 Left 2
WINDOW 123 0 0 Left 0
WINDOW 39 0 0 Left 0
SYMATTR InstName Vref_int1
SYMATTR Value 2.5
SYMBOL OpAmps\\opamp2 -688 -464 R0
SYMATTR InstName U2
SYMATTR Value OPA365
SYMBOL OpAmps\\opamp2 -688 -112 M0
SYMATTR InstName U3
SYMATTR Value tlv3501
SYMBOL OpAmps\\opamp2 -464 592 R0
SYMATTR InstName U4
SYMATTR Value OPA365
SYMBOL res -624 960 R90
WINDOW 0 17 50 VBottom 2
WINDOW 3 32 56 VTop 2
SYMATTR InstName R4
SYMATTR Value 10k
SYMBOL cap -576 976 R0
WINDOW 0 -24 49 Left 2
WINDOW 3 27 53 Left 2
SYMATTR InstName C5
SYMATTR Value 72n
SYMBOL diode -640 912 R90
WINDOW 0 0 32 VBottom 2
WINDOW 3 -11 99 VTop 2
SYMATTR InstName D2
SYMATTR Value 1N5817
SYMBOL sw 1296 128 R180
WINDOW 3 -33 102 Left 2
SYMATTR Value MYSW
SYMATTR InstName S2
SYMBOL Digital\\inv 976 320 R0
WINDOW 3 -22 115 Left 2
SYMATTR InstName A1
SYMATTR Value Vhigh=5 Vlow = 0
SYMBOL diode 1248 96 R180
WINDOW 0 24 64 Left 2
WINDOW 3 24 0 Left 2
SYMATTR InstName D1
SYMBOL diode -432 256 R90
WINDOW 0 0 32 VBottom 2
WINDOW 3 32 32 VTop 2
SYMATTR InstName D3
SYMBOL res -880 1776 R90
WINDOW 0 0 56 VBottom 2
WINDOW 3 32 56 VTop 2
SYMATTR InstName R5
SYMATTR Value 4000
SYMBOL cap -880 1856 R0
SYMATTR InstName C6
SYMATTR Value 100p
SYMBOL diode -896 1664 R90
WINDOW 0 0 32 VBottom 2
WINDOW 3 32 32 VTop 2
SYMATTR InstName D4
SYMATTR Value BAT54
SYMATTR Description Diode
SYMATTR Type diode
SYMBOL res 1280 160 R0
SYMATTR InstName R6
SYMATTR Value 5m
SYMBOL OpAmps\\opamp2 144 1008 R0
SYMATTR InstName U5
SYMATTR Value tlv3501
SYMBOL Digital\\dflop 544 1024 R0
WINDOW 3 -5 171 Left 2
WINDOW 123 -5 199 Left 2
SYMATTR InstName A2
SYMATTR Value DFLOP
SYMATTR SpiceModel ""
SYMATTR Value2 Vhigh=5 Vlow=0 Ref=2.5 Trise=5n Tfall=5n Td=10n
SYMBOL Digital\\and 864 864 R0
WINDOW 3 -49 135 Left 2
WINDOW 123 -49 163 Left 2
SYMATTR InstName A3
SYMATTR Value AND
SYMATTR SpiceModel ""
SYMATTR Value2 Vhigh=5 Vlow=0 Ref=2.5 Trise=5n Tfall=5n
SYMBOL voltage 144 1056 R180
WINDOW 0 24 96 Left 2
WINDOW 3 24 16 Left 2
WINDOW 123 0 0 Left 0
WINDOW 39 0 0 Left 0
SYMATTR InstName V7
SYMATTR Value 5
SYMBOL voltage -48 1104 R90
WINDOW 0 74 122 VBottom 2
WINDOW 3 32 56 VTop 2
WINDOW 123 0 0 Left 0
WINDOW 39 0 0 Left 0
SYMATTR InstName V8
SYMATTR Value -30m
SYMBOL current 2336 -64 R0
WINDOW 123 0 0 Left 0
WINDOW 39 0 0 Left 0
SYMATTR InstName I1
SYMATTR Value PULSE(4 10 1.5m 1u 1u 1m 5m)
SYMBOL res 1744 96 R0
SYMATTR InstName R7
SYMATTR Value 1.25
SYMBOL sw 1920 192 R180
WINDOW 3 -80 -14 Left 2
SYMATTR InstName S3
SYMATTR Value FAULT_SW
SYMBOL res 1904 0 R0
SYMATTR InstName 0.3
SYMATTR Value 0.5
SYMBOL voltage 2032 96 R0
WINDOW 123 0 0 Left 0
WINDOW 39 0 0 Left 0
SYMATTR InstName V9
SYMATTR Value PULSE(0 5 1.5m 1u 1u 1m 4m)
SYMBOL nmos -336 976 M0
WINDOW 3 -142 -12 Left 2
SYMATTR InstName M1
SYMATTR Value FAULT_NMOS
SYMBOL res -416 1088 M270
WINDOW 0 32 56 VTop 2
WINDOW 3 0 56 VBottom 2
SYMATTR InstName R8
SYMATTR Value 1k
SYMBOL cap 640 1488 R0
SYMATTR InstName C7
SYMATTR Value 10n
SYMBOL res 736 1472 R0
SYMATTR InstName R9
SYMATTR Value 100k
SYMBOL diode 640 1280 R0
SYMATTR InstName D5
SYMBOL res 640 1360 R0
SYMATTR InstName R10
SYMATTR Value 10k
SYMBOL OpAmps\\opamp2 384 1456 M0
WINDOW 0 74 19 Left 2
SYMATTR InstName U6
SYMATTR Value tlv3501
SYMBOL voltage 384 1504 R180
WINDOW 0 24 96 Left 2
WINDOW 3 24 16 Left 2
WINDOW 123 0 0 Left 0
WINDOW 39 0 0 Left 0
SYMATTR InstName V10
SYMATTR Value 5
SYMBOL voltage 480 1456 M180
WINDOW 0 -32 56 VBottom 2
WINDOW 3 32 56 VTop 2
WINDOW 123 0 0 Left 0
WINDOW 39 0 0 Left 0
SYMATTR InstName V11
SYMATTR Value 2.5
SYMBOL Digital\\buf 592 832 R0
WINDOW 3 -15 8 Left 2
WINDOW 123 -52 -46 Left 2
SYMATTR InstName A4
SYMATTR SpiceModel ""
SYMATTR Value BUF
SYMATTR Value2 Vhigh=5 Vlow=0 Ref=2.5 Td=15n
TEXT 392 -392 Left 2 !.model MYSW SW(Ron=0.01 Roff=1Meg Vt=2.5)\n.options trtol=7 reltol=0.01 method=gear
TEXT 392 -576 Left 2 !.include OPA365.lib
TEXT 392 -496 Left 2 !.include tlv3501.lib
TEXT 392 -536 Left 2 !.tran 0 5m 0 startup
TEXT 392 -464 Left 2 !.options gmin=1e-10
TEXT 392 -424 Left 2 ;To overcome the SHDN pin commands in the .lib file we have to include the .options param
TEXT 1960 -160 Left 2 !.model FAULT_SW SW(Ron=1m Roff=1Meg Vt=2.5)
TEXT -832 1160 Left 2 !.model FAULT_NMOS VDMOS(Vto=2.5 Rd=10m)
